
OS:Version,
  {d807bfd0-b4c8-4a1f-a034-a82af208f11f}, !- Handle
  1.4.0;                                  !- Version Identifier

OS:Schedule:Constant,
  {cfcd66ed-b9a5-4543-861d-27b3b2d19870}, !- Handle
  Always On Discrete,                     !- Name
  {bffa232a-705b-4208-91e4-c32f1c9df546}, !- Schedule Type Limits Name
  1;                                      !- Value

OS:ScheduleTypeLimits,
  {bffa232a-705b-4208-91e4-c32f1c9df546}, !- Handle
  Always On Discrete Limits,              !- Name
  0,                                      !- Lower Limit Value {BasedOnField A4}
  1,                                      !- Upper Limit Value {BasedOnField A4}
  Discrete,                               !- Numeric Type
  Availability;                           !- Unit Type

OS:BuildingStory,
  {cfdd3f1f-c3e7-4d02-8f3f-4dc6d8515054}, ! Handle
  Story 1,                                ! Name
  0,                                      ! Nominal Z Coordinate {m}
  4,                                      ! Nominal Floor to Floor Height {m}
  ,                                       ! Default Construction Set Name
  ,                                       ! Default Schedule Set Name
  {dba724bf-fb7d-420f-a822-258f5adcdf23}; ! Group Rendering Name

OS:Space,
  {53c9ad45-b532-4196-99e9-5576b84a16a7}, ! Handle
  Story 1 West Perimeter Space,           ! Name
  ,                                       ! Space Type Name
  ,                                       ! Default Construction Set Name
  ,                                       ! Default Schedule Set Name
  -0,                                     ! Direction of Relative North {deg}
  0,                                      ! X Origin {m}
  0,                                      ! Y Origin {m}
  0,                                      ! Z Origin {m}
  {cfdd3f1f-c3e7-4d02-8f3f-4dc6d8515054}, ! Building Story Name
  {df259c97-2eb1-4483-8a2c-b7ad45d6e00a}; ! Thermal Zone Name

OS:Surface,
  {1c268e81-5886-4bb2-ba4a-c6394802af33}, ! Handle
  Surface 1,                              ! Name
  Floor,                                  ! Surface Type
  ,                                       ! Construction Name
  {53c9ad45-b532-4196-99e9-5576b84a16a7}, ! Space Name
  Ground,                                 ! Outside Boundary Condition
  ,                                       ! Outside Boundary Condition Object
  NoSun,                                  ! Sun Exposure
  NoWind,                                 ! Wind Exposure
  ,                                       ! View Factor to Ground
  ,                                       ! Number of Vertices
  0, 0, 0,                                !- X,Y,Z Vertex 1 {m}
  0, 50, 0,                               !- X,Y,Z Vertex 2 {m}
  3, 47, 0,                               !- X,Y,Z Vertex 3 {m}
  3, 3, 0;                                !- X,Y,Z Vertex 4 {m}

OS:Surface,
  {4de329a0-8190-4372-ae98-f205f40ffe0f}, ! Handle
  Surface 2,                              ! Name
  Wall,                                   ! Surface Type
  ,                                       ! Construction Name
  {53c9ad45-b532-4196-99e9-5576b84a16a7}, ! Space Name
  Outdoors,                               ! Outside Boundary Condition
  ,                                       ! Outside Boundary Condition Object
  SunExposed,                             ! Sun Exposure
  WindExposed,                            ! Wind Exposure
  ,                                       ! View Factor to Ground
  ,                                       ! Number of Vertices
  0, 50, 4,                               !- X,Y,Z Vertex 1 {m}
  0, 50, 0,                               !- X,Y,Z Vertex 2 {m}
  0, 0, 0,                                !- X,Y,Z Vertex 3 {m}
  0, 0, 4;                                !- X,Y,Z Vertex 4 {m}

OS:Surface,
  {48a99786-2123-4545-91be-d96c57878e3a}, ! Handle
  Surface 3,                              ! Name
  Wall,                                   ! Surface Type
  ,                                       ! Construction Name
  {53c9ad45-b532-4196-99e9-5576b84a16a7}, ! Space Name
  Surface,                                ! Outside Boundary Condition
  {43289f68-51ea-4749-830e-556a7449e470}, ! Outside Boundary Condition Object
  NoSun,                                  ! Sun Exposure
  NoWind,                                 ! Wind Exposure
  ,                                       ! View Factor to Ground
  ,                                       ! Number of Vertices
  3, 47, 4,                               !- X,Y,Z Vertex 1 {m}
  3, 47, 0,                               !- X,Y,Z Vertex 2 {m}
  0, 50, 0,                               !- X,Y,Z Vertex 3 {m}
  0, 50, 4;                               !- X,Y,Z Vertex 4 {m}

OS:Surface,
  {1bff7d00-91dd-47fa-98aa-662a372b16f3}, ! Handle
  Surface 4,                              ! Name
  Wall,                                   ! Surface Type
  ,                                       ! Construction Name
  {53c9ad45-b532-4196-99e9-5576b84a16a7}, ! Space Name
  Surface,                                ! Outside Boundary Condition
  {bf58f46f-3bf4-4279-9470-5d367a545005}, ! Outside Boundary Condition Object
  NoSun,                                  ! Sun Exposure
  NoWind,                                 ! Wind Exposure
  ,                                       ! View Factor to Ground
  ,                                       ! Number of Vertices
  3, 3, 4,                                !- X,Y,Z Vertex 1 {m}
  3, 3, 0,                                !- X,Y,Z Vertex 2 {m}
  3, 47, 0,                               !- X,Y,Z Vertex 3 {m}
  3, 47, 4;                               !- X,Y,Z Vertex 4 {m}

OS:Surface,
  {60ec13db-c9f9-4ea3-a7eb-ab8c812d6482}, ! Handle
  Surface 5,                              ! Name
  Wall,                                   ! Surface Type
  ,                                       ! Construction Name
  {53c9ad45-b532-4196-99e9-5576b84a16a7}, ! Space Name
  Surface,                                ! Outside Boundary Condition
  {66fcff3b-bc2f-40a2-96ba-518cae1121b2}, ! Outside Boundary Condition Object
  NoSun,                                  ! Sun Exposure
  NoWind,                                 ! Wind Exposure
  ,                                       ! View Factor to Ground
  ,                                       ! Number of Vertices
  0, 0, 4,                                !- X,Y,Z Vertex 1 {m}
  0, 0, 0,                                !- X,Y,Z Vertex 2 {m}
  3, 3, 0,                                !- X,Y,Z Vertex 3 {m}
  3, 3, 4;                                !- X,Y,Z Vertex 4 {m}

OS:Surface,
  {185ffeaa-3c15-46ee-8460-c2cbb1652831}, ! Handle
  Surface 6,                              ! Name
  RoofCeiling,                            ! Surface Type
  ,                                       ! Construction Name
  {53c9ad45-b532-4196-99e9-5576b84a16a7}, ! Space Name
  Surface,                                ! Outside Boundary Condition
  {1e29a046-5687-4d16-bbe1-c09a4c8440e2}, ! Outside Boundary Condition Object
  NoSun,                                  ! Sun Exposure
  NoWind,                                 ! Wind Exposure
  ,                                       ! View Factor to Ground
  ,                                       ! Number of Vertices
  3, 3, 4,                                !- X,Y,Z Vertex 1 {m}
  3, 47, 4,                               !- X,Y,Z Vertex 2 {m}
  0, 50, 4,                               !- X,Y,Z Vertex 3 {m}
  0, 0, 4;                                !- X,Y,Z Vertex 4 {m}

OS:Space,
  {f356168b-513c-4d5e-bed2-4e5da5d7d466}, ! Handle
  Story 1 North Perimeter Space,          ! Name
  ,                                       ! Space Type Name
  ,                                       ! Default Construction Set Name
  ,                                       ! Default Schedule Set Name
  -0,                                     ! Direction of Relative North {deg}
  3,                                      ! X Origin {m}
  47,                                     ! Y Origin {m}
  0,                                      ! Z Origin {m}
  {cfdd3f1f-c3e7-4d02-8f3f-4dc6d8515054}, ! Building Story Name
  {0ac29121-706b-44e9-b9e0-0445d25b0291}; ! Thermal Zone Name

OS:Surface,
  {3d774ead-b4e7-4c24-ac99-cc697c5a0f24}, ! Handle
  Surface 7,                              ! Name
  Floor,                                  ! Surface Type
  ,                                       ! Construction Name
  {f356168b-513c-4d5e-bed2-4e5da5d7d466}, ! Space Name
  Ground,                                 ! Outside Boundary Condition
  ,                                       ! Outside Boundary Condition Object
  NoSun,                                  ! Sun Exposure
  NoWind,                                 ! Wind Exposure
  ,                                       ! View Factor to Ground
  ,                                       ! Number of Vertices
  -3, 3, 0,                               !- X,Y,Z Vertex 1 {m}
  97, 3, 0,                               !- X,Y,Z Vertex 2 {m}
  94, 0, 0,                               !- X,Y,Z Vertex 3 {m}
  0, 0, 0;                                !- X,Y,Z Vertex 4 {m}

OS:Surface,
  {65bff910-7364-46a6-9fdc-d58d56b16a58}, ! Handle
  Surface 8,                              ! Name
  Wall,                                   ! Surface Type
  ,                                       ! Construction Name
  {f356168b-513c-4d5e-bed2-4e5da5d7d466}, ! Space Name
  Outdoors,                               ! Outside Boundary Condition
  ,                                       ! Outside Boundary Condition Object
  SunExposed,                             ! Sun Exposure
  WindExposed,                            ! Wind Exposure
  ,                                       ! View Factor to Ground
  ,                                       ! Number of Vertices
  97, 3, 4,                               !- X,Y,Z Vertex 1 {m}
  97, 3, 0,                               !- X,Y,Z Vertex 2 {m}
  -3, 3, 0,                               !- X,Y,Z Vertex 3 {m}
  -3, 3, 4;                               !- X,Y,Z Vertex 4 {m}

OS:Surface,
  {80916991-3a33-4c0f-80c2-ac370ee9552f}, ! Handle
  Surface 9,                              ! Name
  Wall,                                   ! Surface Type
  ,                                       ! Construction Name
  {f356168b-513c-4d5e-bed2-4e5da5d7d466}, ! Space Name
  Surface,                                ! Outside Boundary Condition
  {8aa600ce-c074-4a17-922c-026bc99da5f5}, ! Outside Boundary Condition Object
  NoSun,                                  ! Sun Exposure
  NoWind,                                 ! Wind Exposure
  ,                                       ! View Factor to Ground
  ,                                       ! Number of Vertices
  94, 0, 4,                               !- X,Y,Z Vertex 1 {m}
  94, 0, 0,                               !- X,Y,Z Vertex 2 {m}
  97, 3, 0,                               !- X,Y,Z Vertex 3 {m}
  97, 3, 4;                               !- X,Y,Z Vertex 4 {m}

OS:Surface,
  {fa853576-f4a3-49de-875c-fa921a2a6aee}, ! Handle
  Surface 10,                             ! Name
  Wall,                                   ! Surface Type
  ,                                       ! Construction Name
  {f356168b-513c-4d5e-bed2-4e5da5d7d466}, ! Space Name
  Surface,                                ! Outside Boundary Condition
  {d6e2dcfa-ff13-4c2b-88aa-0ebf301032d5}, ! Outside Boundary Condition Object
  NoSun,                                  ! Sun Exposure
  NoWind,                                 ! Wind Exposure
  ,                                       ! View Factor to Ground
  ,                                       ! Number of Vertices
  0, 0, 4,                                !- X,Y,Z Vertex 1 {m}
  0, 0, 0,                                !- X,Y,Z Vertex 2 {m}
  94, 0, 0,                               !- X,Y,Z Vertex 3 {m}
  94, 0, 4;                               !- X,Y,Z Vertex 4 {m}

OS:Surface,
  {43289f68-51ea-4749-830e-556a7449e470}, ! Handle
  Surface 11,                             ! Name
  Wall,                                   ! Surface Type
  ,                                       ! Construction Name
  {f356168b-513c-4d5e-bed2-4e5da5d7d466}, ! Space Name
  Surface,                                ! Outside Boundary Condition
  {48a99786-2123-4545-91be-d96c57878e3a}, ! Outside Boundary Condition Object
  NoSun,                                  ! Sun Exposure
  NoWind,                                 ! Wind Exposure
  ,                                       ! View Factor to Ground
  ,                                       ! Number of Vertices
  -3, 3, 4,                               !- X,Y,Z Vertex 1 {m}
  -3, 3, 0,                               !- X,Y,Z Vertex 2 {m}
  0, 0, 0,                                !- X,Y,Z Vertex 3 {m}
  0, 0, 4;                                !- X,Y,Z Vertex 4 {m}

OS:Surface,
  {a6abbd35-535b-4c6e-8278-e190cb3e47dc}, ! Handle
  Surface 12,                             ! Name
  RoofCeiling,                            ! Surface Type
  ,                                       ! Construction Name
  {f356168b-513c-4d5e-bed2-4e5da5d7d466}, ! Space Name
  Surface,                                ! Outside Boundary Condition
  {b87cface-ed70-4d11-ae67-6880e71a29c5}, ! Outside Boundary Condition Object
  NoSun,                                  ! Sun Exposure
  NoWind,                                 ! Wind Exposure
  ,                                       ! View Factor to Ground
  ,                                       ! Number of Vertices
  0, 0, 4,                                !- X,Y,Z Vertex 1 {m}
  94, 0, 4,                               !- X,Y,Z Vertex 2 {m}
  97, 3, 4,                               !- X,Y,Z Vertex 3 {m}
  -3, 3, 4;                               !- X,Y,Z Vertex 4 {m}

OS:Space,
  {b0a84a2e-fbd1-418d-b3be-72e362488c2d}, ! Handle
  Story 1 East Perimeter Space,           ! Name
  ,                                       ! Space Type Name
  ,                                       ! Default Construction Set Name
  ,                                       ! Default Schedule Set Name
  -0,                                     ! Direction of Relative North {deg}
  97,                                     ! X Origin {m}
  3,                                      ! Y Origin {m}
  0,                                      ! Z Origin {m}
  {cfdd3f1f-c3e7-4d02-8f3f-4dc6d8515054}, ! Building Story Name
  {cd4eeb7f-fbad-42a3-a8db-12d0421403d1}; ! Thermal Zone Name

OS:Surface,
  {1e4c5fb1-5bb6-4fae-a6d1-d9ae8e7ee68f}, ! Handle
  Surface 13,                             ! Name
  Floor,                                  ! Surface Type
  ,                                       ! Construction Name
  {b0a84a2e-fbd1-418d-b3be-72e362488c2d}, ! Space Name
  Ground,                                 ! Outside Boundary Condition
  ,                                       ! Outside Boundary Condition Object
  NoSun,                                  ! Sun Exposure
  NoWind,                                 ! Wind Exposure
  ,                                       ! View Factor to Ground
  ,                                       ! Number of Vertices
  3, 47, 0,                               !- X,Y,Z Vertex 1 {m}
  3, -3, 0,                               !- X,Y,Z Vertex 2 {m}
  0, 0, 0,                                !- X,Y,Z Vertex 3 {m}
  0, 44, 0;                               !- X,Y,Z Vertex 4 {m}

OS:Surface,
  {501d3e02-83ee-4bff-b304-7da5de2728b7}, ! Handle
  Surface 14,                             ! Name
  Wall,                                   ! Surface Type
  ,                                       ! Construction Name
  {b0a84a2e-fbd1-418d-b3be-72e362488c2d}, ! Space Name
  Outdoors,                               ! Outside Boundary Condition
  ,                                       ! Outside Boundary Condition Object
  SunExposed,                             ! Sun Exposure
  WindExposed,                            ! Wind Exposure
  ,                                       ! View Factor to Ground
  ,                                       ! Number of Vertices
  3, -3, 4,                               !- X,Y,Z Vertex 1 {m}
  3, -3, 0,                               !- X,Y,Z Vertex 2 {m}
  3, 47, 0,                               !- X,Y,Z Vertex 3 {m}
  3, 47, 4;                               !- X,Y,Z Vertex 4 {m}

OS:Surface,
  {1042aa8e-0fb8-43f8-a893-fa6ddb31f2e9}, ! Handle
  Surface 15,                             ! Name
  Wall,                                   ! Surface Type
  ,                                       ! Construction Name
  {b0a84a2e-fbd1-418d-b3be-72e362488c2d}, ! Space Name
  Surface,                                ! Outside Boundary Condition
  {407ecf5e-6893-4d81-a4ef-20a716af9d6b}, ! Outside Boundary Condition Object
  NoSun,                                  ! Sun Exposure
  NoWind,                                 ! Wind Exposure
  ,                                       ! View Factor to Ground
  ,                                       ! Number of Vertices
  0, 0, 4,                                !- X,Y,Z Vertex 1 {m}
  0, 0, 0,                                !- X,Y,Z Vertex 2 {m}
  3, -3, 0,                               !- X,Y,Z Vertex 3 {m}
  3, -3, 4;                               !- X,Y,Z Vertex 4 {m}

OS:Surface,
  {623aa4b2-49d0-48e6-9f5f-f9f490a04b50}, ! Handle
  Surface 16,                             ! Name
  Wall,                                   ! Surface Type
  ,                                       ! Construction Name
  {b0a84a2e-fbd1-418d-b3be-72e362488c2d}, ! Space Name
  Surface,                                ! Outside Boundary Condition
  {3fd849e7-9b74-415d-b37c-a46f79f073a3}, ! Outside Boundary Condition Object
  NoSun,                                  ! Sun Exposure
  NoWind,                                 ! Wind Exposure
  ,                                       ! View Factor to Ground
  ,                                       ! Number of Vertices
  0, 44, 4,                               !- X,Y,Z Vertex 1 {m}
  0, 44, 0,                               !- X,Y,Z Vertex 2 {m}
  0, 0, 0,                                !- X,Y,Z Vertex 3 {m}
  0, 0, 4;                                !- X,Y,Z Vertex 4 {m}

OS:Surface,
  {8aa600ce-c074-4a17-922c-026bc99da5f5}, ! Handle
  Surface 17,                             ! Name
  Wall,                                   ! Surface Type
  ,                                       ! Construction Name
  {b0a84a2e-fbd1-418d-b3be-72e362488c2d}, ! Space Name
  Surface,                                ! Outside Boundary Condition
  {80916991-3a33-4c0f-80c2-ac370ee9552f}, ! Outside Boundary Condition Object
  NoSun,                                  ! Sun Exposure
  NoWind,                                 ! Wind Exposure
  ,                                       ! View Factor to Ground
  ,                                       ! Number of Vertices
  3, 47, 4,                               !- X,Y,Z Vertex 1 {m}
  3, 47, 0,                               !- X,Y,Z Vertex 2 {m}
  0, 44, 0,                               !- X,Y,Z Vertex 3 {m}
  0, 44, 4;                               !- X,Y,Z Vertex 4 {m}

OS:Surface,
  {682f4cd4-9a89-4575-ab89-988327e0acb2}, ! Handle
  Surface 18,                             ! Name
  RoofCeiling,                            ! Surface Type
  ,                                       ! Construction Name
  {b0a84a2e-fbd1-418d-b3be-72e362488c2d}, ! Space Name
  Surface,                                ! Outside Boundary Condition
  {5cea62e7-f579-4865-9b07-20467931841f}, ! Outside Boundary Condition Object
  NoSun,                                  ! Sun Exposure
  NoWind,                                 ! Wind Exposure
  ,                                       ! View Factor to Ground
  ,                                       ! Number of Vertices
  0, 44, 4,                               !- X,Y,Z Vertex 1 {m}
  0, 0, 4,                                !- X,Y,Z Vertex 2 {m}
  3, -3, 4,                               !- X,Y,Z Vertex 3 {m}
  3, 47, 4;                               !- X,Y,Z Vertex 4 {m}

OS:Space,
  {9d006f28-588c-4f3f-8954-06ffd192110d}, ! Handle
  Story 1 South Perimeter Space,          ! Name
  ,                                       ! Space Type Name
  ,                                       ! Default Construction Set Name
  ,                                       ! Default Schedule Set Name
  -0,                                     ! Direction of Relative North {deg}
  0,                                      ! X Origin {m}
  0,                                      ! Y Origin {m}
  0,                                      ! Z Origin {m}
  {cfdd3f1f-c3e7-4d02-8f3f-4dc6d8515054}, ! Building Story Name
  {3978573d-4d0e-4585-9ecb-caf0cb2f3887}; ! Thermal Zone Name

OS:Surface,
  {746369dc-0418-4316-bcd2-35e3fe9a533d}, ! Handle
  Surface 19,                             ! Name
  Floor,                                  ! Surface Type
  ,                                       ! Construction Name
  {9d006f28-588c-4f3f-8954-06ffd192110d}, ! Space Name
  Ground,                                 ! Outside Boundary Condition
  ,                                       ! Outside Boundary Condition Object
  NoSun,                                  ! Sun Exposure
  NoWind,                                 ! Wind Exposure
  ,                                       ! View Factor to Ground
  ,                                       ! Number of Vertices
  100, 0, 0,                              !- X,Y,Z Vertex 1 {m}
  0, 0, 0,                                !- X,Y,Z Vertex 2 {m}
  3, 3, 0,                                !- X,Y,Z Vertex 3 {m}
  97, 3, 0;                               !- X,Y,Z Vertex 4 {m}

OS:Surface,
  {ee3e2e8e-28bb-45ec-9477-de4f31258d7e}, ! Handle
  Surface 20,                             ! Name
  Wall,                                   ! Surface Type
  ,                                       ! Construction Name
  {9d006f28-588c-4f3f-8954-06ffd192110d}, ! Space Name
  Outdoors,                               ! Outside Boundary Condition
  ,                                       ! Outside Boundary Condition Object
  SunExposed,                             ! Sun Exposure
  WindExposed,                            ! Wind Exposure
  ,                                       ! View Factor to Ground
  ,                                       ! Number of Vertices
  0, 0, 4,                                !- X,Y,Z Vertex 1 {m}
  0, 0, 0,                                !- X,Y,Z Vertex 2 {m}
  100, 0, 0,                              !- X,Y,Z Vertex 3 {m}
  100, 0, 4;                              !- X,Y,Z Vertex 4 {m}

OS:Surface,
  {66fcff3b-bc2f-40a2-96ba-518cae1121b2}, ! Handle
  Surface 21,                             ! Name
  Wall,                                   ! Surface Type
  ,                                       ! Construction Name
  {9d006f28-588c-4f3f-8954-06ffd192110d}, ! Space Name
  Surface,                                ! Outside Boundary Condition
  {60ec13db-c9f9-4ea3-a7eb-ab8c812d6482}, ! Outside Boundary Condition Object
  NoSun,                                  ! Sun Exposure
  NoWind,                                 ! Wind Exposure
  ,                                       ! View Factor to Ground
  ,                                       ! Number of Vertices
  3, 3, 4,                                !- X,Y,Z Vertex 1 {m}
  3, 3, 0,                                !- X,Y,Z Vertex 2 {m}
  0, 0, 0,                                !- X,Y,Z Vertex 3 {m}
  0, 0, 4;                                !- X,Y,Z Vertex 4 {m}

OS:Surface,
  {300a21f3-526b-4e03-90a5-0fbcbc5b479e}, ! Handle
  Surface 22,                             ! Name
  Wall,                                   ! Surface Type
  ,                                       ! Construction Name
  {9d006f28-588c-4f3f-8954-06ffd192110d}, ! Space Name
  Surface,                                ! Outside Boundary Condition
  {a8a5eda0-9403-4918-943a-bd1967bbd4f0}, ! Outside Boundary Condition Object
  NoSun,                                  ! Sun Exposure
  NoWind,                                 ! Wind Exposure
  ,                                       ! View Factor to Ground
  ,                                       ! Number of Vertices
  97, 3, 4,                               !- X,Y,Z Vertex 1 {m}
  97, 3, 0,                               !- X,Y,Z Vertex 2 {m}
  3, 3, 0,                                !- X,Y,Z Vertex 3 {m}
  3, 3, 4;                                !- X,Y,Z Vertex 4 {m}

OS:Surface,
  {407ecf5e-6893-4d81-a4ef-20a716af9d6b}, ! Handle
  Surface 23,                             ! Name
  Wall,                                   ! Surface Type
  ,                                       ! Construction Name
  {9d006f28-588c-4f3f-8954-06ffd192110d}, ! Space Name
  Surface,                                ! Outside Boundary Condition
  {1042aa8e-0fb8-43f8-a893-fa6ddb31f2e9}, ! Outside Boundary Condition Object
  NoSun,                                  ! Sun Exposure
  NoWind,                                 ! Wind Exposure
  ,                                       ! View Factor to Ground
  ,                                       ! Number of Vertices
  100, 0, 4,                              !- X,Y,Z Vertex 1 {m}
  100, 0, 0,                              !- X,Y,Z Vertex 2 {m}
  97, 3, 0,                               !- X,Y,Z Vertex 3 {m}
  97, 3, 4;                               !- X,Y,Z Vertex 4 {m}

OS:Surface,
  {0232bf90-5578-4a97-bb9d-fe257999fca4}, ! Handle
  Surface 24,                             ! Name
  RoofCeiling,                            ! Surface Type
  ,                                       ! Construction Name
  {9d006f28-588c-4f3f-8954-06ffd192110d}, ! Space Name
  Surface,                                ! Outside Boundary Condition
  {0417e745-9334-4c07-80d9-1577ed909a10}, ! Outside Boundary Condition Object
  NoSun,                                  ! Sun Exposure
  NoWind,                                 ! Wind Exposure
  ,                                       ! View Factor to Ground
  ,                                       ! Number of Vertices
  97, 3, 4,                               !- X,Y,Z Vertex 1 {m}
  3, 3, 4,                                !- X,Y,Z Vertex 2 {m}
  0, 0, 4,                                !- X,Y,Z Vertex 3 {m}
  100, 0, 4;                              !- X,Y,Z Vertex 4 {m}

OS:Space,
  {c2623558-1814-46f2-b139-f5866d7677fa}, ! Handle
  Story 1 Core Space,                     ! Name
  ,                                       ! Space Type Name
  ,                                       ! Default Construction Set Name
  ,                                       ! Default Schedule Set Name
  -0,                                     ! Direction of Relative North {deg}
  3,                                      ! X Origin {m}
  3,                                      ! Y Origin {m}
  0,                                      ! Z Origin {m}
  {cfdd3f1f-c3e7-4d02-8f3f-4dc6d8515054}, ! Building Story Name
  {26012911-b228-4f6c-a348-92030b25a361}; ! Thermal Zone Name

OS:Surface,
  {39d65455-e8a8-4838-9d62-29b335ba35dd}, ! Handle
  Surface 25,                             ! Name
  Floor,                                  ! Surface Type
  ,                                       ! Construction Name
  {c2623558-1814-46f2-b139-f5866d7677fa}, ! Space Name
  Ground,                                 ! Outside Boundary Condition
  ,                                       ! Outside Boundary Condition Object
  NoSun,                                  ! Sun Exposure
  NoWind,                                 ! Wind Exposure
  ,                                       ! View Factor to Ground
  ,                                       ! Number of Vertices
  0, 0, 0,                                !- X,Y,Z Vertex 1 {m}
  0, 44, 0,                               !- X,Y,Z Vertex 2 {m}
  94, 44, 0,                              !- X,Y,Z Vertex 3 {m}
  94, 0, 0;                               !- X,Y,Z Vertex 4 {m}

OS:Surface,
  {bf58f46f-3bf4-4279-9470-5d367a545005}, ! Handle
  Surface 26,                             ! Name
  Wall,                                   ! Surface Type
  ,                                       ! Construction Name
  {c2623558-1814-46f2-b139-f5866d7677fa}, ! Space Name
  Surface,                                ! Outside Boundary Condition
  {1bff7d00-91dd-47fa-98aa-662a372b16f3}, ! Outside Boundary Condition Object
  NoSun,                                  ! Sun Exposure
  NoWind,                                 ! Wind Exposure
  ,                                       ! View Factor to Ground
  ,                                       ! Number of Vertices
  0, 44, 4,                               !- X,Y,Z Vertex 1 {m}
  0, 44, 0,                               !- X,Y,Z Vertex 2 {m}
  0, 0, 0,                                !- X,Y,Z Vertex 3 {m}
  0, 0, 4;                                !- X,Y,Z Vertex 4 {m}

OS:Surface,
  {d6e2dcfa-ff13-4c2b-88aa-0ebf301032d5}, ! Handle
  Surface 27,                             ! Name
  Wall,                                   ! Surface Type
  ,                                       ! Construction Name
  {c2623558-1814-46f2-b139-f5866d7677fa}, ! Space Name
  Surface,                                ! Outside Boundary Condition
  {fa853576-f4a3-49de-875c-fa921a2a6aee}, ! Outside Boundary Condition Object
  NoSun,                                  ! Sun Exposure
  NoWind,                                 ! Wind Exposure
  ,                                       ! View Factor to Ground
  ,                                       ! Number of Vertices
  94, 44, 4,                              !- X,Y,Z Vertex 1 {m}
  94, 44, 0,                              !- X,Y,Z Vertex 2 {m}
  0, 44, 0,                               !- X,Y,Z Vertex 3 {m}
  0, 44, 4;                               !- X,Y,Z Vertex 4 {m}

OS:Surface,