
OS:Version,
  {0f08a02e-1560-4114-b9a4-344d752f4076}, !- Handle
  1.13.0;                                 !- Version Identifier

OS:Site,
  {5fc10cf9-94e4-412d-b8a8-68c909db100d}, !- Handle
  Denver Centennial  Golden   Nr,         !- Name
  39.74,                                  !- Latitude {deg}
  -105.18,                                !- Longitude {deg}
  -7,                                     !- Time Zone {hr}
  1829,                                   !- Elevation {m}
  ;                                       !- Terrain

OS:YearDescription,
  {b43653a7-023c-4543-9dd9-82ada44b3a98}, !- Handle
  ,                                       !- Calendar Year
  Sunday;                                 !- Day of Week for Start Day

OS:ClimateZones,
  {60f77248-ef3a-4746-8541-23e170df2768}, !- Handle
  ,                                       !- Active Institution
  ,                                       !- Active Year
  ASHRAE,                                 !- Climate Zone Institution Name 1
  ANSI/ASHRAE Standard 169,               !- Climate Zone Document Name 1
  2006,                                   !- Climate Zone Document Year 1
  ,                                       !- Climate Zone Value 1
  CEC,                                    !- Climate Zone Institution Name 2
  California Climate Zone Descriptions,   !- Climate Zone Document Name 2
  1995,                                   !- Climate Zone Document Year 2
  ;                                       !- Climate Zone Value 2

OS:Building,
  {59cfb29d-5605-4634-b990-e87804e8ec6a}, !- Handle
  Building 1,                             !- Name
  ,                                       !- Building Sector Type
  ,                                       !- North Axis {deg}
  ,                                       !- Nominal Floor to Floor Height {m}
  {c387b0bb-0ee8-4b9e-b79b-600cd33294a0}, !- Space Type Name
  {fcd94a85-be42-485b-8928-036c668ded96}, !- Default Construction Set Name
  ;                                       !- Default Schedule Set Name

OS:Facility,
  {4c292236-93dd-47f0-936e-5670b69591e1}; !- Handle

OS:SimulationControl,
  {77371cb4-7ac8-4ab7-9199-4e7b1c3780f3}; !- Handle

OS:Sizing:Parameters,
  {f18be222-2c7f-4204-9ccd-dd00a82af5be}, !- Handle
  1.25,                                   !- Heating Sizing Factor
  1.15;                                   !- Cooling Sizing Factor

OS:Timestep,
  {8a466fbf-d496-4321-b203-45914cc02056}, !- Handle
  6;                                      !- Number of Timesteps per Hour

OS:ShadowCalculation,
  {925d4f7b-ef86-466b-80b9-bc1431cbd47f}, !- Handle
  20,                                     !- Calculation Frequency
  15000;                                  !- Maximum Figures in Shadow Overlap Calculations

OS:HeatBalanceAlgorithm,
  {ef790abb-4b83-47f1-8a32-27466d7c2d33}, !- Handle
  ConductionTransferFunction,             !- Algorithm
  200;                                    !- Surface Temperature Upper Limit {C}

OS:RunPeriod,
  {d3a499f6-e4c5-4382-b0b3-93434c803941}, !- Handle
  Run Period 1,                           !- Name
  1,                                      !- Begin Month
  1,                                      !- Begin Day of Month
  12,                                     !- End Month
  31,                                     !- End Day of Month
  ,                                       !- Use Weather File Holidays and Special Days
  ,                                       !- Use Weather File Daylight Saving Period
  ,                                       !- Apply Weekend Holiday Rule
  ,                                       !- Use Weather File Rain Indicators
  ,                                       !- Use Weather File Snow Indicators
  ;                                       !- Number of Times Runperiod to be Repeated

OS:LifeCycleCost:Parameters,
  {3706fd78-b03a-4992-9862-10fa0f5d9835}, !- Handle
  ,                                       !- Analysis Type
  ,                                       !- Discounting Convention
  ,                                       !- Inflation Approach
  ,                                       !- Real Discount Rate
  ,                                       !- Nominal Discount Rate
  ,                                       !- Inflation
  ,                                       !- Base Date Month
  ,                                       !- Base Date Year
  ,                                       !- Service Date Month
  ,                                       !- Service Date Year
  ;                                       !- Length of Study Period in Years

OS:BuildingStory,
  {d8d34aef-4926-40f3-9d1d-3c2fcf0131b2}, !- Handle
  Story 1,                                !- Name
  0,                                      !- Nominal Z Coordinate {m}
  3.048,                                  !- Nominal Floor to Floor Height {m}
  ,                                       !- Default Construction Set Name
  ,                                       !- Default Schedule Set Name
  {377bc4a7-83ec-414f-b486-58f9e4f3ce05}; !- Group Rendering Name

OS:Space,
  {0da09163-ed5e-4456-8de7-b6a564f6e1de}, !- Handle
  Story 1 West Perimeter Space,           !- Name
  ,                                       !- Space Type Name
  ,                                       !- Default Construction Set Name
  ,                                       !- Default Schedule Set Name
  -0,                                     !- Direction of Relative North {deg}
  0,                                      !- X Origin {m}
  0,                                      !- Y Origin {m}
  0,                                      !- Z Origin {m}
  {d8d34aef-4926-40f3-9d1d-3c2fcf0131b2}, !- Building Story Name
  {8d731e90-371b-4d7b-b534-fabdef5598ba}; !- Thermal Zone Name

OS:Surface,
  {f3d19d62-222d-4a5c-815e-212ffb85b613}, !- Handle
  Surface 1,                              !- Name
  Floor,                                  !- Surface Type
  ,                                       !- Construction Name
  {0da09163-ed5e-4456-8de7-b6a564f6e1de}, !- Space Name
  Ground,                                 !- Outside Boundary Condition
  ,                                       !- Outside Boundary Condition Object
  NoSun,                                  !- Sun Exposure
  NoWind,                                 !- Wind Exposure
  ,                                       !- View Factor to Ground
  ,                                       !- Number of Vertices
  0, 0, 0,                                !- X,Y,Z Vertex 1 {m}
  0, 34.0776759770968, 0,                 !- X,Y,Z Vertex 2 {m}
  4.57, 29.5076759770968, 0,              !- X,Y,Z Vertex 3 {m}
  4.57, 4.57, 0;                          !- X,Y,Z Vertex 4 {m}

OS:Surface,
  {89a43ea7-9e9d-494c-b04b-ade712f967b4}, !- Handle
  Surface 2,                              !- Name
  Wall,                                   !- Surface Type
  ,                                       !- Construction Name
  {0da09163-ed5e-4456-8de7-b6a564f6e1de}, !- Space Name
  Outdoors,                               !- Outside Boundary Condition
  ,                                       !- Outside Boundary Condition Object
  SunExposed,                             !- Sun Exposure
  WindExposed,                            !- Wind Exposure
  ,                                       !- View Factor to Ground
  ,                                       !- Number of Vertices
  0, 34.0776759770968, 3.048,             !- X,Y,Z Vertex 1 {m}
  0, 34.0776759770968, 0,                 !- X,Y,Z Vertex 2 {m}
  0, 0, 0,                                !- X,Y,Z Vertex 3 {m}
  0, 0, 3.048;                            !- X,Y,Z Vertex 4 {m}

OS:Surface,
  {7c86bf7a-a0d5-486a-bcbc-4eb78fa719fe}, !- Handle
  Surface 3,                              !- Name
  Wall,                                   !- Surface Type
  ,                                       !- Construction Name
  {0da09163-ed5e-4456-8de7-b6a564f6e1de}, !- Space Name
  Surface,                                !- Outside Boundary Condition
  {a25dacfd-83d1-426b-acb1-f3e68214c680}, !- Outside Boundary Condition Object
  NoSun,                                  !- Sun Exposure
  NoWind,                                 !- Wind Exposure
  ,                                       !- View Factor to Ground
  ,                                       !- Number of Vertices
  4.57, 29.5076759770968, 3.048,          !- X,Y,Z Vertex 1 {m}
  4.57, 29.5076759770968, 0,              !- X,Y,Z Vertex 2 {m}
  0, 34.0776759770968, 0,                 !- X,Y,Z Vertex 3 {m}
  0, 34.0776759770968, 3.048;             !- X,Y,Z Vertex 4 {m}

OS:Surface,
  {9a908442-9435-4eb3-a57d-23a54005ea12}, !- Handle
  Surface 4,                              !- Name
  Wall,                                   !- Surface Type
  ,                                       !- Construction Name
  {0da09163-ed5e-4456-8de7-b6a564f6e1de}, !- Space Name
  Surface,                                !- Outside Boundary Condition
  {d1f86964-8204-4bbb-b11f-5ebe910d2ec2}, !- Outside Boundary Condition Object
  NoSun,                                  !- Sun Exposure
  NoWind,                                 !- Wind Exposure
  ,                                       !- View Factor to Ground
  ,                                       !- Number of Vertices
  4.57, 4.57, 3.048,                      !- X,Y,Z Vertex 1 {m}
  4.57, 4.57, 0,                          !- X,Y,Z Vertex 2 {m}
  4.57, 29.5076759770968, 0,              !- X,Y,Z Vertex 3 {m}
  4.57, 29.5076759770968, 3.048;          !- X,Y,Z Vertex 4 {m}

OS:Surface,
  {12dcbebf-8fe2-4964-a3ea-9dad419c7675}, !- Handle
  Surface 5,                              !- Name
  Wall,                                   !- Surface Type
  ,                                       !- Construction Name
  {0da09163-ed5e-4456-8de7-b6a564f6e1de}, !- Space Name
  Surface,                                !- Outside Boundary Condition
  {0e5d757d-f5c6-41f3-b4d2-64d8d375e8ea}, !- Outside Boundary Condition Object
  NoSun,                                  !- Sun Exposure
  NoWind,                                 !- Wind Exposure
  ,                                       !- View Factor to Ground
  ,                                       !- Number of Vertices
  0, 0, 3.048,                            !- X,Y,Z Vertex 1 {m}
  0, 0, 0,                                !- X,Y,Z Vertex 2 {m}
  4.57, 4.57, 0,                          !- X,Y,Z Vertex 3 {m}
  4.57, 4.57, 3.048;                      !- X,Y,Z Vertex 4 {m}

OS:Surface,
  {91fb39c6-2821-4dea-8375-cd09950a7a8e}, !- Handle
  Surface 6,                              !- Name
  RoofCeiling,                            !- Surface Type
  ,                                       !- Construction Name
  {0da09163-ed5e-4456-8de7-b6a564f6e1de}, !- Space Name
  Surface,                                !- Outside Boundary Condition
  {4f87dc75-3649-4b64-8a49-007583ff0d10}, !- Outside Boundary Condition Object
  NoSun,                                  !- Sun Exposure
  NoWind,                                 !- Wind Exposure
  ,                                       !- View Factor to Ground
  ,                                       !- Number of Vertices
  4.57, 4.57, 3.048,                      !- X,Y,Z Vertex 1 {m}
  4.57, 29.5076759770968, 3.048,          !- X,Y,Z Vertex 2 {m}
  0, 34.0776759770968, 3.048,             !- X,Y,Z Vertex 3 {m}
  0, 0, 3.048;                            !- X,Y,Z Vertex 4 {m}

OS:Space,
  {d02a04dc-44ab-44d3-8f44-b5ca839f4a91}, !- Handle
  Story 1 North Perimeter Space,          !- Name
  ,                                       !- Space Type Name
  ,                                       !- Default Construction Set Name
  ,                                       !- Default Schedule Set Name
  -0,                                     !- Direction of Relative North {deg}
  4.57,                                   !- X Origin {m}
  29.5076759770968,                       !- Y Origin {m}
  0,                                      !- Z Origin {m}
  {d8d34aef-4926-40f3-9d1d-3c2fcf0131b2}, !- Building Story Name
  {52113ea8-4678-489b-a278-a2c51483de50}; !- Thermal Zone Name

OS:Surface,
  {7bb3f5dd-ee43-4c43-a182-c2a732b0d6ef}, !- Handle
  Surface 7,                              !- Name
  Floor,                                  !- Surface Type
  ,                                       !- Construction Name
  {d02a04dc-44ab-44d3-8f44-b5ca839f4a91}, !- Space Name
  Ground,                                 !- Outside Boundary Condition
  ,                                       !- Outside Boundary Condition Object
  NoSun,                                  !- Sun Exposure
  NoWind,                                 !- Wind Exposure
  ,                                       !- View Factor to Ground
  ,                                       !- Number of Vertices
  -4.57, 4.57000000000001, 0,             !- X,Y,Z Vertex 1 {m}
  131.740703908387, 4.57000000000001, 0,  !- X,Y,Z Vertex 2 {m}
  127.170703908387, 3.5527136788005e-15, 0, !- X,Y,Z Vertex 3 {m}
  0, 3.5527136788005e-15, 0;              !- X,Y,Z Vertex 4 {m}

OS:Surface,
  {7fa20696-74ec-4045-81a8-d18dd731ca25}, !- Handle
  Surface 8,                              !- Name
  Wall,                                   !- Surface Type
  ,                                       !- Construction Name
  {d02a04dc-44ab-44d3-8f44-b5ca839f4a91}, !- Space Name
  Outdoors,                               !- Outside Boundary Condition
  ,                                       !- Outside Boundary Condition Object
  SunExposed,                             !- Sun Exposure
  WindExposed,                            !- Wind Exposure
  ,                                       !- View Factor to Ground
  ,                                       !- Number of Vertices
  131.740703908387, 4.57000000000001, 3.048, !- X,Y,Z Vertex 1 {m}
  131.740703908387, 4.57000000000001, 0,  !- X,Y,Z Vertex 2 {m}
  -4.57, 4.57000000000001, 0,             !- X,Y,Z Vertex 3 {m}
  -4.57, 4.57000000000001, 3.048;         !- X,Y,Z Vertex 4 {m}

OS:Surface,
  {42c120b4-ef9a-4676-b69e-c8106f676727}, !- Handle
  Surface 9,                              !- Name
  Wall,                                   !- Surface Type
  ,                                       !- Construction Name
  {d02a04dc-44ab-44d3-8f44-b5ca839f4a91}, !- Space Name
  Surface,                                !- Outside Boundary Condition
  {aa821ef5-5ed4-414d-9418-ccff581eae5a}, !- Outside Boundary Condition Object
  NoSun,                                  !- Sun Exposure
  NoWind,                                 !- Wind Exposure
  ,                                       !- View Factor to Ground
  ,                                       !- Number of Vertices
  127.170703908387, 3.5527136788005e-15, 3.048, !- X,Y,Z Vertex 1 {m}
  127.170703908387, 3.5527136788005e-15, 0, !- X,Y,Z Vertex 2 {m}
  131.740703908387, 4.57000000000001, 0,  !- X,Y,Z Vertex 3 {m}
  131.740703908387, 4.57000000000001, 3.048; !- X,Y,Z Vertex 4 {m}

OS:Surface,
  {d19b235a-1cb2-4ea7-bd71-5a69e2153003}, !- Handle
  Surface 10,                             !- Name
  Wall,                                   !- Surface Type
  ,                                       !- Construction Name
  {d02a04dc-44ab-44d3-8f44-b5ca839f4a91}, !- Space Name
  Surface,                                !- Outside Boundary Condition
  {6b182d90-3d06-4a4d-9d76-8d9eeef2c463}, !- Outside Boundary Condition Object
  NoSun,                                  !- Sun Exposure
  NoWind,                                 !- Wind Exposure
  ,                                       !- View Factor to Ground
  ,                                       !- Number of Vertices
  0, 3.5527136788005e-15, 3.048,          !- X,Y,Z Vertex 1 {m}
  0, 3.5527136788005e-15, 0,              !- X,Y,Z Vertex 2 {m}
  127.170703908387, 3.5527136788005e-15, 0, !- X,Y,Z Vertex 3 {m}
  127.170703908387, 3.5527136788005e-15, 3.048; !- X,Y,Z Vertex 4 {m}

OS:Surface,
  {a25dacfd-83d1-426b-acb1-f3e68214c680}, !- Handle
  Surface 11,                             !- Name
  Wall,                                   !- Surface Type
  ,                                       !- Construction Name
  {d02a04dc-44ab-44d3-8f44-b5ca839f4a91}, !- Space Name
  Surface,                                !- Outside Boundary Condition
  {7c86bf7a-a0d5-486a-bcbc-4eb78fa719fe}, !- Outside Boundary Condition Object
  NoSun,                                  !- Sun Exposure
  NoWind,                                 !- Wind Exposure
  ,                                       !- View Factor to Ground
  ,                                       !- Number of Vertices
  -4.57, 4.57000000000001, 3.048,         !- X,Y,Z Vertex 1 {m}
  -4.57, 4.57000000000001, 0,             !- X,Y,Z Vertex 2 {m}
  0, 3.5527136788005e-15, 0,              !- X,Y,Z Vertex 3 {m}
  0, 3.5527136788005e-15, 3.048;          !- X,Y,Z Vertex 4 {m}

OS:Surface,
  {0a7e63fb-d3c5-4efb-8edc-d52fd351535a}, !- Handle
  Surface 12,                             !- Name
  RoofCeiling,                            !- Surface Type
  ,                                       !- Construction Name
  {d02a04dc-44ab-44d3-8f44-b5ca839f4a91}, !- Space Name
  Surface,                                !- Outside Boundary Condition
  {fb5c336a-3159-4eb8-95f2-88da97f8e174}, !- Outside Boundary Condition Object
  NoSun,                                  !- Sun Exposure
  NoWind,                                 !- Wind Exposure
  ,                                       !- View Factor to Ground
  ,                                       !- Number of Vertices
  0, 3.5527136788005e-15, 3.048,          !- X,Y,Z Vertex 1 {m}
  127.170703908387, 3.5527136788005e-15, 3.048, !- X,Y,Z Vertex 2 {m}
  131.740703908387, 4.57000000000001, 3.048, !- X,Y,Z Vertex 3 {m}
  -4.57, 4.57000000000001, 3.048;         !- X,Y,Z Vertex 4 {m}

OS:Space,
  {2201ed4b-774d-48ce-bde6-aad8c74148b7}, !- Handle
  Story 1 East Perimeter Space,           !- Name
  ,                                       !- Space Type Name
  ,                                       !- Default Construction Set Name
  ,                                       !- Default Schedule Set Name
  -0,                                     !- Direction of Relative North {deg}
  131.740703908387,                       !- X Origin {m}
  4.57,                                   !- Y Origin {m}
  0,                                      !- Z Origin {m}
  {d8d34aef-4926-40f3-9d1d-3c2fcf0131b2}, !- Building Story Name
  {8446cc3d-bfb0-4e4a-ba47-a996ee889a51}; !- Thermal Zone Name

OS:Surface,
  {59cdffb0-0a65-44b7-9a3a-f6a446ed05a7}, !- Handle
  Surface 13,                             !- Name
  Floor,                                  !- Surface Type
  ,                                       !- Construction Name
  {2201ed4b-774d-48ce-bde6-aad8c74148b7}, !- Space Name
  Ground,                                 !- Outside Boundary Condition
  ,                                       !- Outside Boundary Condition Object
  NoSun,                                  !- Sun Exposure
  NoWind,                                 !- Wind Exposure
  ,                                       !- View Factor to Ground
  ,                                       !- Number of Vertices
  4.56999999999982, 29.5076759770968, 0,  !- X,Y,Z Vertex 1 {m}
  4.56999999999982, -4.57, 0,             !- X,Y,Z Vertex 2 {m}
  -1.98951966012828e-13, 0, 0,            !- X,Y,Z Vertex 3 {m}
  -1.98951966012828e-13, 24.9376759770968, 0; !- X,Y,Z Vertex 4 {m}

OS:Surface,
  {b707a87b-ea4f-4136-92ec-0660e013e120}, !- Handle
  Surface 14,                             !- Name
  Wall,                                   !- Surface Type
  ,                                       !- Construction Name
  {2201ed4b-774d-48ce-bde6-aad8c74148b7}, !- Space Name
  Outdoors,                               !- Outside Boundary Condition
  ,                                       !- Outside Boundary Condition Object
  SunExposed,                             !- Sun Exposure
  WindExposed,                            !- Wind Exposure
  ,                                       !- View Factor to Ground
  ,                                       !- Number of Vertices
  4.56999999999982, -4.57, 3.048,         !- X,Y,Z Vertex 1 {m}
  4.56999999999982, -4.57, 0,             !- X,Y,Z Vertex 2 {m}
  4.56999999999982, 29.5076759770968, 0,  !- X,Y,Z Vertex 3 {m}
  4.56999999999982, 29.5076759770968, 3.048; !- X,Y,Z Vertex 4 {m}

OS:Surface,
  {2776cf92-1e36-4bb7-8d39-81a19625ebb4}, !- Handle
  Surface 15,                             !- Name
  Wall,                                   !- Surface Type
  ,                                       !- Construction Name
  {2201ed4b-774d-48ce-bde6-aad8c74148b7}, !- Space Name
  Surface,                                !- Outside Boundary Condition
  {57ddd527-05b2-4a55-a2f0-19b58ff664fb}, !- Outside Boundary Condition Object
  NoSun,                                  !- Sun Exposure
  NoWind,                                 !- Wind Exposure
  ,                                       !- View Factor to Ground
  ,                                       !- Number of Vertices
  -1.98951966012828e-13, 0, 3.048,        !- X,Y,Z Vertex 1 {m}
  -1.98951966012828e-13, 0, 0,            !- X,Y,Z Vertex 2 {m}
  4.56999999999982, -4.57, 0,             !- X,Y,Z Vertex 3 {m}
  4.56999999999982, -4.57, 3.048;         !- X,Y,Z Vertex 4 {m}

OS:Surface,
  {2e935bfc-22c5-4d2e-b6e8-de29afc9d846}, !- Handle
  Surface 16,                             !- Name
  Wall,                                   !- Surface Type
  ,                                       !- Construction Name
  {2201ed4b-774d-48ce-bde6-aad8c74148b7}, !- Space Name
  Surface,                                !- Outside Boundary Condition
  {b79e75e8-a5f5-4833-beb3-3e535e259706}, !- Outside Boundary Condition Object
  NoSun,                                  !- Sun Exposure
  NoWind,                                 !- Wind Exposure
  ,                                       !- View Factor to Ground
  ,                                       !- Number of Vertices
  -1.98951966012828e-13, 24.9376759770968, 3.048, !- X,Y,Z Vertex 1 {m}
  -1.98951966012828e-13, 24.9376759770968, 0, !- X,Y,Z Vertex 2 {m}
  -1.98951966012828e-13, 0, 0,            !- X,Y,Z Vertex 3 {m}
  -1.98951966012828e-13, 0, 3.048;        !- X,Y,Z Vertex 4 {m}

OS:Surface,
  {aa821ef5-5ed4-414d-9418-ccff581eae5a}, !- Handle
  Surface 17,                             !- Name
  Wall,                                   !- Surface Type
  ,                                       !- Construction Name
  {2201ed4b-774d-48ce-bde6-aad8c74148b7}, !- Space Name
  Surface,                                !- Outside Boundary Condition
  {42c120b4-ef9a-4676-b69e-c8106f676727}, !- Outside Boundary Condition Object
  NoSun,                                  !- Sun Exposure
  NoWind,                                 !- Wind Exposure
  ,                                       !- View Factor to Ground
  ,                                       !- Number of Vertices
  4.56999999999982, 29.5076759770968, 3.048, !- X,Y,Z Vertex 1 {m}
  4.56999999999982, 29.5076759770968, 0,  !- X,Y,Z Vertex 2 {m}
  -1.98951966012828e-13, 24.9376759770968, 0, !- X,Y,Z Vertex 3 {m}
  -1.98951966012828e-13, 24.9376759770968, 3.048; !- X,Y,Z Vertex 4 {m}

OS:Surface,
  {939d243b-6cc3-4e32-b92b-3e06ed9dc272}, !- Handle
  Surface 18,                             !- Name
  RoofCeiling,                            !- Surface Type
  ,                                       !- Construction Name
  {2201ed4b-774d-48ce-bde6-aad8c74148b7}, !- Space Name
  Surface,                                !- Outside Boundary Condition
  {f9800818-a729-4b45-9ff6-452ffd2df604}, !- Outside Boundary Condition Object
  NoSun,                                  !- Sun Exposure
  NoWind,                                 !- Wind Exposure
  ,                                       !- View Factor to Ground
  ,                                       !- Number of Vertices
  -1.98951966012828e-13, 24.9376759770968, 3.048, !- X,Y,Z Vertex 1 {m}
  -1.98951966012828e-13, 0, 3.048,        !- X,Y,Z Vertex 2 {m}
  4.56999999999982, -4.57, 3.048,         !- X,Y,Z Vertex 3 {m}
  4.56999999999982, 29.5076759770968, 3.048; !- X,Y,Z Vertex 4 {m}

OS:Space,
  {dfd97b33-20b6-43e9-8956-78939e6db0c9}, !- Handle
  Story 1 South Perimeter Space,          !- Name
  ,                                       !- Space Type Name
  ,                                       !- Default Construction Set Name
  ,                                       !- Default Schedule Set Name
  -0,                                     !- Direction of Relative North {deg}
  0,                                      !- X Origin {m}
  0,                                      !- Y Origin {m}
  0,                                      !- Z Origin {m}
  {d8d34aef-4926-40f3-9d1d-3c2fcf0131b2}, !- Building Story Name
  {e6f6522e-cb25-456d-a77b-3e8fb6e560a5}; !- Thermal Zone Name

OS:Surface,
  {9b895611-9f9e-4b48-bfdc-b2ebe2002382}, !- Handle
  Surface 19,                             !- Name
  Floor,                                  !- Surface Type
  ,                                       !- Construction Name
  {dfd97b33-20b6-43e9-8956-78939e6db0c9}, !- Space Name
  Ground,                                 !- Outside Boundary Condition
  ,                                       !- Outside Boundary Condition Object
  NoSun,                                  !- Sun Exposure
  NoWind,                                 !- Wind Exposure
  ,                                       !- View Factor to Ground
  ,                                       !- Number of Vertices
  136.310703908387, 0, 0,                 !- X,Y,Z Vertex 1 {m}
  0, 0, 0,                                !- X,Y,Z Vertex 2 {m}
  4.57, 4.57, 0,                          !- X,Y,Z Vertex 3 {m}
  131.740703908387, 4.57, 0;              !- X,Y,Z Vertex 4 {m}

OS:Surface,
  {c2031a47-c6b9-402a-b956-fb2b32398c6e}, !- Handle
  Surface 20,                             !- Name
  Wall,                                   !- Surface Type
  ,                                       !- Construction Name
  {dfd97b33-20b6-43e9-8956-78939e6db0c9}, !- Space Name
  Outdoors,                               !- Outside Boundary Condition
  ,                                       !- Outside Boundary Condition Object
  SunExposed,                             !- Sun Exposure
  WindExposed,                            !- Wind Exposure
  ,                                       !- View Factor to Ground
  ,                                       !- Number of Vertices
  0, 0, 3.048,                            !- X,Y,Z Vertex 1 {m}
  0, 0, 0,                                !- X,Y,Z Vertex 2 {m}
  136.310703908387, 0, 0,                 !- X,Y,Z Vertex 3 {m}
  136.310703908387, 0, 3.048;             !- X,Y,Z Vertex 4 {m}

OS:Surface,
  {0e5d757d-f5c6-41f3-b4d2-64d8d375e8ea}, !- Handle
  Surface 21,                             !- Name
  Wall,                                   !- Surface Type
  ,                                       !- Construction Name
  {dfd97b33-20b6-43e9-8956-78939e6db0c9}, !- Space Name
  Surface,                                !- Outside Boundary Condition
  {12dcbebf-8fe2-4964-a3ea-9dad419c7675}, !- Outside Boundary Condition Object
  NoSun,                                  !- Sun Exposure
  NoWind,                                 !- Wind Exposure
  ,                                       !- View Factor to Ground
  ,                                       !- Number of Vertices
  4.57, 4.57, 3.048,                      !- X,Y,Z Vertex 1 {m}
  4.57, 4.57, 0,                          !- X,Y,Z Vertex 2 {m}
  0, 0, 0,                                !- X,Y,Z Vertex 3 {m}
  0, 0, 3.048;                            !- X,Y,Z Vertex 4 {m}

OS:Surface,
  {e13bae2f-ad53-41f1-9efd-22d943aab434}, !- Handle
  Surface 22,                             !- Name
  Wall,                                   !- Surface Type
  {b1a7d9f8-c066-4244-8527-5d8c6596d175}, !- Construction Name
  {dfd97b33-20b6-43e9-8956-78939e6db0c9}, !- Space Name
  Surface,                                !- Outside Boundary Condition
  {4190b637-3af7-453a-8b26-1147eb62363b}, !- Outside Boundary Condition Object
  NoSun,                                  !- Sun Exposure
  NoWind,                                 !- Wind Exposure
  ,                                       !- View Factor to Ground
  ,                                       !- Number of Vertices
  131.740703908387, 4.57, 3.048,          !- X,Y,Z Vertex 1 {m}
  131.740703908387, 4.57, 0,              !- X,Y,Z Vertex 2 {m}
  4.57, 4.57, 0,                          !- X,Y,Z Vertex 3 {m}
  4.57, 4.57, 3.048;                      !- X,Y,Z Vertex 4 {m}

OS:Surface,
  {57ddd527-05b2-4a55-a2f0-19b58ff664fb}, !- Handle
  Surface 23,                             !- Name
  Wall,                                   !- Surface Type
  ,                                       !- Construction Name
  {dfd97b33-20b6-43e9-8956-78939e6db0c9}, !- Space Name
  Surface,                                !- Outside Boundary Condition
  {2776cf92-1e36-4bb7-8d39-81a19625ebb4}, !- Outside Boundary Condition Object
  NoSun,                                  !- Sun Exposure
  NoWind,                                 !- Wind Exposure
  ,                                       !- View Factor to Ground
  ,                                       !- Number of Vertices
  136.310703908387, 0, 3.048,             !- X,Y,Z Vertex 1 {m}
  136.310703908387, 0, 0,                 !- X,Y,Z Vertex 2 {m}
  131.740703908387, 4.57, 0,              !- X,Y,Z Vertex 3 {m}
  131.740703908387, 4.57, 3.048;          !- X,Y,Z Vertex 4 {m}

OS:Surface,
  {4f2b3f2d-8dde-4edf-9193-c9bbac1191b4}, !- Handle
  Surface 24,                             !- Name
  RoofCeiling,                            !- Surface Type
  ,                                       !- Construction Name