
OS:Version,
  {912e120a-7836-4f5b-846a-ed92a8badcf8}, !- Handle
  1.9.4;                                  !- Version Identifier

OS:ClimateZones,
  {8a3ac41c-57d4-48e4-a48e-1f232e262211}, !- Handle
  ,                                       !- Active Institution
  ,                                       !- Active Year
  ASHRAE,                                 !- Climate Zone Institution Name 1
  ANSI/ASHRAE Standard 169,               !- Climate Zone Document Name 1
  2006,                                   !- Climate Zone Document Year 1
  ,                                       !- Climate Zone Value 1
  CEC,                                    !- Climate Zone Institution Name 2
  California Climate Zone Descriptions,   !- Climate Zone Document Name 2
  1995,                                   !- Climate Zone Document Year 2
  ;                                       !- Climate Zone Value 2

OS:LifeCycleCost:Parameters,
  {1d4d0f18-e6dd-45c8-896c-f4f2a89e6ae5}, !- Handle
  FEMP,                                   !- Analysis Type
  ,                                       !- Discounting Convention
  ,                                       !- Inflation Approach
  ,                                       !- Real Discount Rate
  ,                                       !- Nominal Discount Rate
  ,                                       !- Inflation
  ,                                       !- Base Date Month
  ,                                       !- Base Date Year
  ,                                       !- Service Date Month
  ,                                       !- Service Date Year
  ,                                       !- Length of Study Period in Years
  ,                                       !- Tax Rate
  ,                                       !- Depreciation Method
  Yes;                                    !- Use NIST Fuel Escalation Rates

OS:YearDescription,
  {c1349a5a-d7e1-4ed9-8e5b-24480649c25c}, !- Handle
  ,                                       !- Calendar Year
  Sunday;                                 !- Day of Week for Start Day

OS:RadianceParameters,
  {8297fd56-36de-4b79-a182-b7636f4ae3e3}, !- Handle
  1,                                      !- Accumulated Rays per Record
  0,                                      !- Direct Threshold
  1,                                      !- Direct Certainty
  1,                                      !- Direct Jitter
  1,                                      !- Direct Pretest
  6,                                      !- Ambient Bounces VMX
  2,                                      !- Ambient Bounces DMX
  4050,                                   !- Ambient Divisions VMX
  512,                                    !- Ambient Divisions DMX
  256,                                    !- Ambient Supersamples
  0.001,                                  !- Limit Weight VMX
  0.001,                                  !- Limit Weight DMX
  500,                                    !- Klems Sampling Density
  146;                                    !- Sky Discretization Resolution

OS:SimulationControl,
  {7c57f4fc-548f-44e7-a438-1feca6a75629}; !- Handle

OS:Sizing:Parameters,
  {ee365675-827e-489e-9a24-0f596988dec4}, !- Handle
  1.25,                                   !- Heating Sizing Factor
  1.15;                                   !- Cooling Sizing Factor

OS:ProgramControl,
  {8a7b938e-cdcb-40af-82b1-79c267c36bae}; !- Handle

OS:Timestep,
  {31824a36-2f0f-4919-a534-cdb00e20d2e0}, !- Handle
  2;                                      !- Number of Timesteps per Hour

OS:OutputControl:ReportingTolerances,
  {275082a5-6cfd-4756-972e-8810ab253e29}; !- Handle

OS:ConvergenceLimits,
  {fcca1605-8471-4f2f-a485-a59582311771}; !- Handle

OS:ShadowCalculation,
  {d875de65-75c7-4d9d-883e-07bd79421b67}, !- Handle
  7,                                      !- Calculation Frequency
  15000;                                  !- Maximum Figures in Shadow Overlap Calculations

OS:SurfaceConvectionAlgorithm:Inside,
  {5add9a33-b760-4e82-a0f9-3ae0e369b9c4}, !- Handle
  TARP;                                   !- Algorithm

OS:SurfaceConvectionAlgorithm:Outside,
  {0257be16-14fc-418e-bc73-178201ccc4ec}, !- Handle
  DOE-2;                                  !- Algorithm

OS:HeatBalanceAlgorithm,
  {5a22c4c4-a6a6-4769-b0a8-f79498f98a6d}, !- Handle
  ConductionTransferFunction,             !- Algorithm
  200;                                    !- Surface Temperature Upper Limit {C}

OS:ZoneAirHeatBalanceAlgorithm,
  {24c912f8-6f7f-4792-8ea0-a8d47b3c41a1}, !- Handle
  AnalyticalSolution;                     !- Algorithm

OS:ZoneAirContaminantBalance,
  {07e7d420-4b9b-4760-8a70-01b36aa6074f}; !- Handle

OS:ZoneCapacitanceMultiplier:ResearchSpecial,
  {91056672-db13-4057-9cb7-7ac44d24bfc5}, !- Handle
  ,                                       !- Temperature Capacity Multiplier
  ,                                       !- Humidity Capacity Multiplier
  ;                                       !- Carbon Dioxide Capacity Multiplier

OS:RunPeriod,
  {17c33f47-c9b9-463a-84bc-12596f349148}, !- Handle
  Run Period 1,                           !- Name
  1,                                      !- Begin Month
  1,                                      !- Begin Day of Month
  12,                                     !- End Month
  31,                                     !- End Day of Month
  ,                                       !- Use Weather File Holidays and Special Days
  ,                                       !- Use Weather File Daylight Saving Period
  ,                                       !- Apply Weekend Holiday Rule
  ,                                       !- Use Weather File Rain Indicators
  ,                                       !- Use Weather File Snow Indicators
  ;                                       !- Number of Times Runperiod to be Repeated

OS:Building,
  {e0ce3521-4e53-4eca-8017-2f1c8dec2b50}, !- Handle
  Building 1,                             !- Name
  ,                                       !- Building Sector Type
  ,                                       !- North Axis {deg}
  ,                                       !- Nominal Floor to Floor Height {m}
  {e110097f-4888-4031-aa16-ac8a3d3e9112}, !- Space Type Name
  {10fb2bf0-6218-4cd1-9c1f-ddb3a7689649}, !- Default Construction Set Name
  ,                                       !- Default Schedule Set Name
  ,                                       !- Standards Number of Stories
  ,                                       !- Standards Number of Above Ground Stories
  ,                                       !- Standards Building Type
  ,                                       !- Standards Number of Living Units
  ,                                       !- Relocatable
  ;                                       !- Nominal Floor to Ceiling Height {m}

OS:Facility,
  {b6e6be84-f909-42a5-9deb-ef70c0296721}; !- Handle

OS:SpaceType,
  {11fc19d0-499f-478e-87f4-8a8303d542cf}, !- Handle
  90.1-2010 - Office - BreakRoom,         !- Name
  ,                                       !- Default Construction Set Name
  {be3058b4-c0c8-4d91-ab23-2e615d12ae11}, !- Default Schedule Set Name
  {c6727792-35dc-4614-9e17-29bac0c12c34}, !- Group Rendering Name
  {471602e6-68d2-4901-9eec-59e1ea24d34d}, !- Design Specification Outdoor Air Object Name
  Office,                                 !- Standards Building Type
  BreakRoom;                              !- Standards Space Type

OS:Rendering:Color,
  {c6727792-35dc-4614-9e17-29bac0c12c34}, !- Handle
  Rendering Color 1,                      !- Name
  230,                                    !- Rendering Red Value
  157,                                    !- Rendering Green Value
  120;                                    !- Rendering Blue Value

OS:DefaultScheduleSet,
  {be3058b4-c0c8-4d91-ab23-2e615d12ae11}, !- Handle
  90.1-2010 - Office - BreakRoom Schedule Set, !- Name
  ,                                       !- Hours of Operation Schedule Name
  {aa6651cd-c209-4a02-b781-8183b8fde312}, !- Number of People Schedule Name
  {0739bf4c-0f55-428a-8b8a-2aec1290dc02}, !- People Activity Level Schedule Name
  {f0c84baf-4869-46da-b145-6abcccfe48f0}, !- Lighting Schedule Name
  {3b01d2af-0880-4fa9-a099-33aab2aa3e37}, !- Electric Equipment Schedule Name
  ,                                       !- Gas Equipment Schedule Name
  ,                                       !- Hot Water Equipment Schedule Name
  {b66feef8-d221-4366-924c-6a4ff7b01f39}, !- Infiltration Schedule Name
  ,                                       !- Steam Equipment Schedule Name
  ;                                       !- Other Equipment Schedule Name

OS:Lights:Definition,
  {a9459850-bc0e-4c8e-a272-f716aeaf14b0}, !- Handle
  90.1-2010 - Office - BreakRoom Lights Definition, !- Name
  Watts/Area,                             !- Design Level Calculation Method
  ,                                       !- Lighting Level {W}
  7.8576546041981,                        !- Watts per Space Floor Area {W/m2}
  ;                                       !- Watts per Person {W/person}

OS:Lights,
  {dcf1b7d1-e0ff-49fd-ba8c-920e7df06032}, !- Handle
  90.1-2010 - Office - BreakRoom Lights,  !- Name
  {a9459850-bc0e-4c8e-a272-f716aeaf14b0}, !- Lights Definition Name
  {11fc19d0-499f-478e-87f4-8a8303d542cf}; !- Space or SpaceType Name

OS:Schedule:Ruleset,
  {f0c84baf-4869-46da-b145-6abcccfe48f0}, ! Handle
  Office Bldg Light,                      ! Name
  {891f6de6-526e-449a-8ead-cd57983f19d8}, ! Schedule Type Limits Name
  {1ec6c586-fe84-4b91-b643-e8dfee6a941b}, ! Default Day Schedule Name
  {07b02061-a241-4b0f-bd18-51a61b4345a3}, ! Summer Design Day Schedule Name
  {7e719bbb-f826-4006-a2a8-140f32d4f5db}; ! Winter Design Day Schedule Name

OS:ScheduleTypeLimits,
  {891f6de6-526e-449a-8ead-cd57983f19d8}, ! Handle
  Fraction,                               ! Name
  0,                                      ! Lower Limit Value
  1,                                      ! Upper Limit Value
  CONTINUOUS;                             ! Numeric Type

OS:Schedule:Day,
  {1ec6c586-fe84-4b91-b643-e8dfee6a941b}, ! Handle
  Office Bldg Light Default Schedule,     ! Name
  {891f6de6-526e-449a-8ead-cd57983f19d8}, ! Schedule Type Limits Name
  ,                                       ! Interpolate to Timestep
  5,                                      !- Hour 1
  0,                                      !- Minute 1
  0.05,                                   !- Value Until Time 1
  7,                                      !- Hour 2
  0,                                      !- Minute 2
  0.1,                                    !- Value Until Time 2
  8,                                      !- Hour 3
  0,                                      !- Minute 3
  0.3,                                    !- Value Until Time 3
  17,                                     !- Hour 4
  0,                                      !- Minute 4
  0.9,                                    !- Value Until Time 4
  18,                                     !- Hour 5
  0,                                      !- Minute 5
  0.7,                                    !- Value Until Time 5
  20,                                     !- Hour 6
  0,                                      !- Minute 6
  0.5,                                    !- Value Until Time 6
  22,                                     !- Hour 7
  0,                                      !- Minute 7
  0.3,                                    !- Value Until Time 7
  23,                                     !- Hour 8
  0,                                      !- Minute 8
  0.1,                                    !- Value Until Time 8
  24,                                     !- Hour 9
  0,                                      !- Minute 9
  0.05;                                   !- Value Until Time 9

OS:Schedule:Day,
  {07b02061-a241-4b0f-bd18-51a61b4345a3}, ! Handle
  Office Bldg Light Summer Design Day,    ! Name
  {891f6de6-526e-449a-8ead-cd57983f19d8}, ! Schedule Type Limits Name
  ,                                       ! Interpolate to Timestep
  24,                                     ! Hour 1
  0,                                      ! Minute 1
  1;                                      ! Value Until Time 1

OS:Schedule:Day,
  {7e719bbb-f826-4006-a2a8-140f32d4f5db}, ! Handle
  Office Bldg Light Winter Design Day,    ! Name
  {891f6de6-526e-449a-8ead-cd57983f19d8}, ! Schedule Type Limits Name
  ,                                       ! Interpolate to Timestep
  24,                                     ! Hour 1
  0,                                      ! Minute 1
  0;                                      ! Value Until Time 1

OS:Schedule:Rule,
  {c89d5a81-1e3a-41cd-b755-53d69b9612f4}, ! Handle
  Office Bldg Light Rule 1,               ! Name
  {f0c84baf-4869-46da-b145-6abcccfe48f0}, ! Schedule Ruleset Name
  0,                                      ! Rule Order
  {77eef1ed-3492-4983-bb06-a9e07b285694}, ! Day Schedule Name
  Yes,                                    ! Apply Sunday
  No,                                     ! Apply Monday
  No,                                     ! Apply Tuesday
  No,                                     ! Apply Wednesday
  No,                                     ! Apply Thursday
  No,                                     ! Apply Friday
  No,                                     ! Apply Saturday
  ,                                       ! Apply Holiday
  DateRange,                              ! Date Specification Type
  1,                                      ! Start Month
  1,                                      ! Start Day
  12,                                     ! End Month
  31;                                     ! End Day

OS:Schedule:Day,
  {77eef1ed-3492-4983-bb06-a9e07b285694}, ! Handle
  Office Bldg Light Rule 1 Day Schedule,  ! Name
  {891f6de6-526e-449a-8ead-cd57983f19d8}, ! Schedule Type Limits Name
  ,                                       ! Interpolate to Timestep
  24,                                     ! Hour 1
  0,                                      ! Minute 1
  0.050000000000000003;                   ! Value Until Time 1

OS:Schedule:Rule,
  {1e186c8a-12d9-48da-aac9-37e8e46b371e}, ! Handle
  Office Bldg Light Rule 2,               ! Name
  {f0c84baf-4869-46da-b145-6abcccfe48f0}, ! Schedule Ruleset Name
  1,                                      ! Rule Order
  {210c8921-f917-4e8e-82da-9895b61440ca}, ! Day Schedule Name
  No,                                     ! Apply Sunday
  No,                                     ! Apply Monday
  No,                                     ! Apply Tuesday
  No,                                     ! Apply Wednesday
  No,                                     ! Apply Thursday
  No,                                     ! Apply Friday
  Yes,                                    ! Apply Saturday
  ,                                       ! Apply Holiday
  DateRange,                              ! Date Specification Type
  1,                                      ! Start Month
  1,                                      ! Start Day
  12,                                     ! End Month
  31;                                     ! End Day

OS:Schedule:Day,
  {210c8921-f917-4e8e-82da-9895b61440ca}, ! Handle
  Office Bldg Light Rule 2 Day Schedule,  ! Name
  {891f6de6-526e-449a-8ead-cd57983f19d8}, ! Schedule Type Limits Name
  ,                                       ! Interpolate to Timestep
  6,                                      ! Hour 1
  0,                                      ! Minute 1
  0.050000000000000003,                   ! Value Until Time 1
  8,                                      ! Hour 2
  0,                                      ! Minute 2
  0.10000000000000001,                    ! Value Until Time 2
  14,                                     ! Hour 3
  0,                                      ! Minute 3
  0.5,                                    ! Value Until Time 3
  17,                                     ! Hour 4
  0,                                      ! Minute 4
  0.14999999999999999,                    ! Value Until Time 4
  24,                                     ! Hour 5
  0,                                      ! Minute 5
  0.050000000000000003;                   ! Value Until Time 5

OS:DesignSpecification:OutdoorAir,
  {471602e6-68d2-4901-9eec-59e1ea24d34d}, !- Handle
  90.1-2010 - Office - BreakRoom Ventilation, !- Name
  Sum,                                    !- Outdoor Air Method
  0.002359737216,                         !- Outdoor Air Flow per Person {m3/s-person}
  0.0003048,                              !- Outdoor Air Flow per Floor Area {m3/s-m2}
  ,                                       !- Outdoor Air Flow Rate {m3/s}
  ,                                       !- Outdoor Air Flow Air Changes per Hour {1/hr}
  ;                                       !- Outdoor Air Flow Rate Fraction Schedule Name

OS:People:Definition,
  {5bbe50ea-cc69-428a-a05a-e1e2bb7ea7fd}, !- Handle
  90.1-2010 - Office - BreakRoom People Definition, !- Name
  People/Area,                            !- Number of People Calculation Method
  ,                                       !- Number of People {people}
  0.538195520835486,                      !- People per Space Floor Area {person/m2}
  ,                                       !- Space Floor Area per Person {m2/person}
  0.3;                                    !- Fraction Radiant

OS:People,
  {f3d5d65c-d800-4985-b01f-fcf6ff0f446b}, !- Handle
  90.1-2010 - Office - BreakRoom People,  !- Name
  {5bbe50ea-cc69-428a-a05a-e1e2bb7ea7fd}, !- People Definition Name
  {11fc19d0-499f-478e-87f4-8a8303d542cf}; !- Space or SpaceType Name

OS:Schedule:Ruleset,
  {aa6651cd-c209-4a02-b781-8183b8fde312}, ! Handle
  Medium Office Bldg Occ,                 ! Name
  {891f6de6-526e-449a-8ead-cd57983f19d8}, ! Schedule Type Limits Name
  {06f7f9a2-ad66-4eb7-a080-4f2b58920a13}, ! Default Day Schedule Name
  {a4f88390-da11-4759-8b35-e90ea23ad20a}, ! Summer Design Day Schedule Name
  {f3e56224-595b-4978-a56b-2703e73c9a38}; ! Winter Design Day Schedule Name

OS:Schedule:Day,
  {06f7f9a2-ad66-4eb7-a080-4f2b58920a13}, ! Handle
  Medium Office Bldg Occ Default Schedule, ! Name
  {891f6de6-526e-449a-8ead-cd57983f19d8}, ! Schedule Type Limits Name
  ,                                       ! Interpolate to Timestep
  6,                                      !- Hour 1
  0,                                      !- Minute 1
  0,                                      !- Value Until Time 1
  7,                                      !- Hour 2
  0,                                      !- Minute 2
  0.1,                                    !- Value Until Time 2
  8,                                      !- Hour 3
  0,                                      !- Minute 3
  0.2,                                    !- Value Until Time 3
  12,                                     !- Hour 4
  0,                                      !- Minute 4
  0.95,                                   !- Value Until Time 4
  13,                                     !- Hour 5
  0,                                      !- Minute 5
  0.5,                                    !- Value Until Time 5
  17,                                     !- Hour 6
  0,                                      !- Minute 6
  0.95,                                   !- Value Until Time 6
  18,                                     !- Hour 7
  0,                                      !- Minute 7
  0.7,                                    !- Value Until Time 7
  20,                                     !- Hour 8
  0,                                      !- Minute 8
  0.4,                                    !- Value Until Time 8
  22,                                     !- Hour 9
  0,                                      !- Minute 9
  0.1,                                    !- Value Until Time 9
  24,                                     !- Hour 10
  0,                                      !- Minute 10
  0.05;                                   !- Value Until Time 10

OS:Schedule:Day,
  {a4f88390-da11-4759-8b35-e90ea23ad20a}, ! Handle
  Medium Office Bldg Occ Summer Design Day, ! Name
  {891f6de6-526e-449a-8ead-cd57983f19d8}, ! Schedule Type Limits Name
  ,                                       ! Interpolate to Timestep
  6,                                      ! Hour 1
  0,                                      ! Minute 1
  0,                                      ! Value Until Time 1
  22,                                     ! Hour 2
  0,                                      ! Minute 2
  1,                                      ! Value Until Time 2
  24,                                     ! Hour 3
  0,                                      ! Minute 3
  0.050000000000000003;                   ! Value Until Time 3

OS:Schedule:Day,
  {f3e56224-595b-4978-a56b-2703e73c9a38}, ! Handle
  Medium Office Bldg Occ Winter Design Day, ! Name
  {891f6de6-526e-449a-8ead-cd57983f19d8}, ! Schedule Type Limits Name
  ,                                       ! Interpolate to Timestep
  24,                                     ! Hour 1
  0,                                      ! Minute 1
  0;                                      ! Value Until Time 1

OS:Schedule:Rule,
  {c13f913b-2c75-4b66-8c57-be60b0ce993c}, ! Handle
  Medium Office Bldg Occ Rule 1,          ! Name
  {aa6651cd-c209-4a02-b781-8183b8fde312}, ! Schedule Ruleset Name
  0,                                      ! Rule Order
  {3c518eb4-8291-4abe-99a4-e28c30f5621f}, ! Day Schedule Name
  Yes,                                    ! Apply Sunday
  No,                                     ! Apply Monday
  No,                                     ! Apply Tuesday
  No,                                     ! Apply Wednesday
  No,                                     ! Apply Thursday
  No,                                     ! Apply Friday
  No,                                     ! Apply Saturday
  ,                                       ! Apply Holiday
  DateRange,                              ! Date Specification Type
  1,                                      ! Start Month
  1,                                      ! Start Day
  12,                                     ! End Month
  31;                                     ! End Day

OS:Schedule:Day,
  {3c518eb4-8291-4abe-99a4-e28c30f5621f}, ! Handle
  Medium Office Bldg Occ Rule 1 Day Schedule, ! Name
  {891f6de6-526e-449a-8ead-cd57983f19d8}, ! Schedule Type Limits Name
  ,                                       ! Interpolate to Timestep
  24,                                     ! Hour 1
  0,                                      ! Minute 1
  0;                                      ! Value Until Time 1

OS:Schedule:Rule,
  {fcdb6a1d-f3de-4eb0-8acc-72083ac8bc91}, ! Handle
  Medium Office Bldg Occ Rule 2,          ! Name
  {aa6651cd-c209-4a02-b781-8183b8fde312}, ! Schedule Ruleset Name
  1,                                      ! Rule Order
  {f24cd8d6-3fde-44e8-b071-208fbf00b39d}, ! Day Schedule Name
  No,                                     ! Apply Sunday
  No,                                     ! Apply Monday
  No,                                     ! Apply Tuesday
  No,                                     ! Apply Wednesday
  No,                                     ! Apply Thursday
  No,                                     ! Apply Friday
  Yes,                                    ! Apply Saturday
  ,                                       ! Apply Holiday
  DateRange,                              ! Date Specification Type
  1,                                      ! Start Month
  1,                                      ! Start Day
  12,                                     ! End Month
  31;                                     ! End Day

OS:Schedule:Day,
  {f24cd8d6-3fde-44e8-b071-208fbf00b39d}, ! Handle
  Medium Office Bldg Occ Rule 2 Day Schedule, ! Name
  {891f6de6-526e-449a-8ead-cd57983f19d8}, ! Schedule Type Limits Name
  ,                                       ! Interpolate to Timestep
  6,                                      ! Hour 1
  0,                                      ! Minute 1
  0,                                      ! Value Until Time 1
  8,                                      ! Hour 2
  0,                                      ! Minute 2
  0.10000000000000001,                    ! Value Until Time 2
  14,                                     ! Hour 3
  0,                                      ! Minute 3
  0.5,                                    ! Value Until Time 3
  17,                                     ! Hour 4
  0,                                      ! Minute 4
  0.10000000000000001,                    ! Value Until Time 4
  24,                                     ! Hour 5
  0,                                      ! Minute 5
  0;                                      ! Value Until Time 5

OS:Schedule:Ruleset,
  {0739bf4c-0f55-428a-8b8a-2aec1290dc02}, ! Handle
  Medium Office Activity,                 ! Name
  {73657411-a2e4-44d6-ad71-e6f4bdbf3a88}, ! Schedule Type Limits Name
  {75c08a50-a127-4053-b701-304c48be8378}, ! Default Day Schedule Name
  {4f89a7c1-9aaf-43dd-9de2-e64d1d7773b2}, ! Summer Design Day Schedule Name
  {8d315409-70e5-4e93-9575-ce9c95ee771a}; ! Winter Design Day Schedule Name

OS:ScheduleTypeLimits,
  {73657411-a2e4-44d6-ad71-e6f4bdbf3a88}, !- Handle
  ActivityLevel 13,                       !- Name
  0,                                      !- Lower Limit Value {BasedOnField A4}
  ,                                       !- Upper Limit Value {BasedOnField A4}
  Continuous,                             !- Numeric Type
  ActivityLevel;                          !- Unit Type

OS:Schedule:Day,
  {75c08a50-a127-4053-b701-304c48be8378}, ! Handle
  Medium Office Activity Default Schedule, ! Name
  {73657411-a2e4-44d6-ad71-e6f4bdbf3a88}, ! Schedule Type Limits Name
  ,                                       ! Interpolate to Timestep
  24,                                     !- Hour 1
  0,                                      !- Minute 1
  120;                                    !- Value Until Time 1

OS:Schedule:Day,
  {4f89a7c1-9aaf-43dd-9de2-e64d1d7773b2}, ! Handle
  Medium Office Activity Summer Design Day, ! Name
  {73657411-a2e4-44d6-ad71-e6f4bdbf3a88}, ! Schedule Type Limits Name
  ,                                       ! Interpolate to Timestep
  24,                                     ! Hour 1
  0,                                      ! Minute 1
  120;                                    ! Value Until Time 1

OS:Schedule:Day,
  {8d315409-70e5-4e93-9575-ce9c95ee771a}, ! Handle
  Medium Office Activity Winter Design Day, ! Name
  {73657411-a2e4-44d6-ad71-e6f4bdbf3a88}, ! Schedule Type Limits Name
  ,                                       ! Interpolate to Timestep
  24,                                     ! Hour 1
  0,                                      ! Minute 1
  120;                                    ! Value Until Time 1

OS:SpaceInfiltration:DesignFlowRate,
  {efd579c7-02f8-4756-8833-07e8fb4a8b16}, !- Handle
  90.1-2010 - Office - BreakRoom Infiltration, !- Name
  {11fc19d0-499f-478e-87f4-8a8303d542cf}, !- Space or SpaceType Name
  ,                                       !- Schedule Name
  Flow/ExteriorArea,                      !- Design Flow Rate Calculation Method
  ,                                       !- Design Flow Rate {m3/s}
  ,                                       !- Flow per Space Floor Area {m3/s-m2}
  0.000226568,                            !- Flow per Exterior Surface Area {m3/s-m2}
  ,                                       !- Air Changes per Hour {1/hr}
  ,                                       !- Constant Term Coefficient
  ,                                       !- Temperature Term Coefficient
  ,                                       !- Velocity Term Coefficient
  ;                                       !- Velocity Squared Term Coefficient

OS:Schedule:Ruleset,
  {b66feef8-d221-4366-924c-6a4ff7b01f39}, ! Handle
  Medium Office Infil Quarter On,         ! Name
  {891f6de6-526e-449a-8ead-cd57983f19d8}, ! Schedule Type Limits Name
  {e1006152-4278-4dd4-b1a9-4cbb666614b2}, ! Default Day Schedule Name
  {a64d54e2-19b2-4c1d-8aed-65ca280e53c3}, ! Summer Design Day Schedule Name
  {3b718743-7724-45d7-8646-0c7245ef832d}; ! Winter Design Day Schedule Name

OS:Schedule:Day,
  {e1006152-4278-4dd4-b1a9-4cbb666614b2}, ! Handle
  Medium Office Infil Quarter On Default Schedule, ! Name
  {891f6de6-526e-449a-8ead-cd57983f19d8}, ! Schedule Type Limits Name
  ,                                       ! Interpolate to Timestep
  6,                                      !- Hour 1
  0,                                      !- Minute 1
  1,                                      !- Value Until Time 1
  22,                                     !- Hour 2
  0,                                      !- Minute 2
  0.25,                                   !- Value Until Time 2
  24,                                     !- Hour 3
  0,                                      !- Minute 3
  1;                                      !- Value Until Time 3

OS:Schedule:Day,
  {a64d54e2-19b2-4c1d-8aed-65ca280e53c3}, ! Handle
  Medium Office Infil Quarter On Summer Design Day, ! Name
  {891f6de6-526e-449a-8ead-cd57983f19d8}, ! Schedule Type Limits Name
  ,                                       ! Interpolate to Timestep
  6,                                      ! Hour 1
  0,                                      ! Minute 1
  1,                                      ! Value Until Time 1
  22,                                     ! Hour 2
  0,                                      ! Minute 2
  0.25,                                   ! Value Until Time 2
  24,                                     ! Hour 3
  0,                                      ! Minute 3
  1;                                      ! Value Until Time 3

OS:Schedule:Day,
  {3b718743-7724-45d7-8646-0c7245ef832d}, ! Handle